@<TRIPOS>MOLECULE
DMA
 26 25 0 0 0
SMALL
GASTEIGER

@<TRIPOS>ATOM
      1 C          -6.4454   -1.0818   -2.2165 C.3     1  DMA1        0.0817
      2 O          -5.3538   -0.2796   -1.7612 O.3     1  DMA1       -0.4679
      3 H          -6.3777   -1.2037   -3.3007 H       1  DMA1        0.0661
      4 H          -6.4775   -2.0559   -1.7206 H       1  DMA1        0.0661
      5 H          -7.3722   -0.5511   -1.9822 H       1  DMA1        0.0661
      6 C          -4.1926   -0.9569   -1.5405 C.2     1  DMA1        0.3068
      7 C          -3.1263    0.0178   -1.0954 C.3     1  DMA1        0.0449
      8 H           3.4817    1.4921    2.2006 H       1  DMA1        0.0661
      9 O          -4.0313   -2.1580   -1.7007 O.2     1  DMA1       -0.2509
     10 C          -1.8410   -0.6861   -0.6612 C.3     1  DMA1       -0.0425
     11 H          -2.9182    0.6927   -1.9331 H       1  DMA1        0.0377
     12 H          -3.5228    0.6018   -0.2572 H       1  DMA1        0.0377
     13 C          -0.7731    0.3299   -0.2562 C.3     1  DMA1       -0.0425
     14 H          -2.0548   -1.3588    0.1787 H       1  DMA1        0.0271
     15 H          -1.4643   -1.3122   -1.4795 H       1  DMA1        0.0271
     16 C           0.5189   -0.3509    0.1912 C.3     1  DMA1        0.0449
     17 H          -0.5632    0.9967   -1.1019 H       1  DMA1        0.0271
     18 H          -1.1554    0.9622    0.5549 H       1  DMA1        0.0271
     19 C           1.5737    0.6611    0.5745 C.2     1  DMA1        0.3068
     20 H           0.3218   -0.9875    1.0607 H       1  DMA1        0.0377
     21 H           0.9151   -0.9675   -0.6230 H       1  DMA1        0.0377
     22 O           2.7109    0.0137    0.9546 O.3     1  DMA1       -0.4679
     23 H           4.0663    1.5257    0.4970 H       1  DMA1        0.0661
     24 O           1.4334    1.8755    0.5499 O.2     1  DMA1       -0.2509
     25 C           3.7746    0.8875    1.3368 C.3     1  DMA1        0.0817
     26 H           4.6340    0.2733    1.6194 H       1  DMA1        0.0661
@<TRIPOS>BOND
     1     1     2    1
     2     1     3    1
     3     1     4    1
     4     1     5    1
     5     2     6    1
     6     6     7    1
     7    25     8    1
     8     6     9    2
     9     7    10    1
    10     7    11    1
    11     7    12    1
    12    10    13    1
    13    10    14    1
    14    10    15    1
    15    13    16    1
    16    13    17    1
    17    13    18    1
    18    16    19    1
    19    16    20    1
    20    16    21    1
    21    19    22    1
    22    25    23    1
    23    19    24    2
    24    22    25    1
    25    25    26    1
