@<TRIPOS>MOLECULE
ETAC
 14 13 0 0 0
SMALL
GASTEIGER

@<TRIPOS>ATOM
      1 C          -5.9614    0.5276    0.2626 C.3     1  ETAC1        0.0332
      2 H          -5.8742    0.1128    1.2691 H       1  ETAC1        0.0342
      3 H          -6.0856    1.6126    0.3183 H       1  ETAC1        0.0342
      4 C          -4.7234    0.2120   -0.5203 C.2     1  ETAC1        0.3039
      5 H          -6.8423    0.1175   -0.2390 H       1  ETAC1        0.0342
      6 H          -4.1723   -3.5213   -1.6608 H       1  ETAC1        0.0262
      7 O          -4.8173   -1.0289   -1.0701 O.3     1  ETAC1       -0.4651
      8 C          -3.6633   -1.4273   -1.8205 C.3     1  ETAC1        0.0896
      9 C          -3.9445   -2.7837   -2.4373 C.3     1  ETAC1       -0.0306
     10 H          -3.4620   -0.6970   -2.6121 H       1  ETAC1        0.0694
     11 H          -2.7981   -1.4958   -1.1519 H       1  ETAC1        0.0694
     12 H          -4.8184   -2.7335   -3.0952 H       1  ETAC1        0.0262
     13 H          -3.0860   -3.1340   -3.0170 H       1  ETAC1        0.0262
     14 O          -3.7575    0.9569   -0.6095 O.2     1  ETAC1       -0.2512
@<TRIPOS>BOND
     1     1     2    1
     2     1     3    1
     3     1     4    1
     4     1     5    1
     5     9     6    1
     6     4     7    1
     7     7     8    1
     8     8     9    1
     9     8    10    1
    10     8    11    1
    11     9    12    1
    12     9    13    1
    13     4    14    2
