@<TRIPOS>MOLECULE
ETOH
 9 8 0 0 0
SMALL
GASTEIGER

@<TRIPOS>ATOM
      1 C          -4.6725    2.2583    0.2446 C.3     1  ETAC1       -0.0418
      2 C          -4.0849    1.6938   -1.0318 C.3     1  ETAC1        0.0414
      3 H          -5.3173    3.1162    0.0275 H       1  ETAC1        0.0252
      4 H          -5.2599    1.5015    0.7718 H       1  ETAC1        0.0252
      5 H          -3.8791    2.6167    0.9085 H       1  ETAC1        0.0252
      6 H          -4.8734    1.3583   -1.7122 H       1  ETAC1        0.0554
      7 O          -3.3079    2.6848   -1.6881 O.3     1  ETAC1       -0.3953
      8 H          -3.4350    0.8422   -0.8105 H       1  ETAC1        0.0554
      9 H          -3.8929    3.4377   -1.8790 H       1  ETAC1        0.2094
@<TRIPOS>BOND
     1     1     2    1
     2     1     3    1
     3     1     4    1
     4     1     5    1
     5     2     6    1
     6     2     7    1
     7     2     8    1
     8     7     9    1
