@<TRIPOS>MOLECULE
MEOH
 6 5 0 0 0
SMALL
GASTEIGER

@<TRIPOS>ATOM
      1 C          -6.5579    0.3928   -0.0324 C.3     1  MEOH1        0.0330
      2 H          -6.0074   -0.5213    0.2031 H       1  MEOH1        0.0521
      3 H          -6.6777    0.4902   -1.1141 H       1  MEOH1        0.0521
      4 H          -7.5426    0.3542    0.4391 H       1  MEOH1        0.0521
      5 O          -5.8510    1.5126    0.4679 O.3     1  MEOH1       -0.3982
      6 H          -4.9821    1.5202    0.0315 H       1  MEOH1        0.2090
@<TRIPOS>BOND
     1     1     2    1
     2     1     3    1
     3     1     4    1
     4     1     5    1
     5     5     6    1
