@<TRIPOS>MOLECULE
PHBA
 16 16 0 0 0
SMALL
GASTEIGER

@<TRIPOS>ATOM
      1 C          -2.5733    2.3822   -0.0996 C.ar    1  PHBA1       -0.0443
      2 C          -2.6917    3.7231   -2.2350 C.2     1  PHBA1        0.3368
      3 H          -1.4886    2.4565   -0.0968 H       1  PHBA1        0.0627
      4 H          -5.3199    3.3278   -1.8924 H       1  PHBA1        0.0627
      5 C          -3.2127    1.6860    0.9303 C.ar    1  PHBA1       -0.0194
      6 C          -4.6011    1.5882    0.9312 C.ar    1  PHBA1        0.1169
      7 O          -5.2649    0.9178    1.9149 O.3     1  PHBA1       -0.5068
      8 C          -5.3600    2.1740   -0.0762 C.ar    1  PHBA1       -0.0194
      9 C          -4.7234    2.8706   -1.1053 C.ar    1  PHBA1       -0.0443
     10 C          -3.3266    2.9766   -1.1220 C.ar    1  PHBA1        0.0591
     11 O          -3.2757    4.2924   -3.1384 O.2     1  PHBA1       -0.2451
     12 H          -6.4432    2.0888   -0.0614 H       1  PHBA1        0.0654
     13 O          -1.3484    3.7163   -2.1687 O.3     1  PHBA1       -0.4771
     14 H          -4.6164    0.5621    2.5445 H       1  PHBA1        0.2921
     15 H          -2.6152    1.2316    1.7145 H       1  PHBA1        0.0654
     16 H          -1.0746    4.2311   -2.9567 H       1  PHBA1        0.2954
@<TRIPOS>BOND
     1     5     6   ar
     2     6     8   ar
     3     1     3    1
     4     2    10    1
     5     4     9    1
     6     6     7    1
     7     8     9   ar
     8     9    10   ar
     9     1    10   ar
    10     1     5   ar
    11     5    15    1
    12     8    12    1
    13     2    11    2
    14     7    14    1
    15     2    13    1
    16    13    16    1
