@<TRIPOS>MOLECULE
SA
 24 24 0 0 0
SMALL
GASTEIGER

@<TRIPOS>ATOM
      1 C          -2.5565    2.3011   -0.1047 C.ar    1  SA1       -0.0021
      2 C          -2.6400    3.6071   -2.2592 C.2     1  SA1        0.3370
      3 H          -1.4737    2.3545   -0.1362 H       1  SA1        0.0663
      4 H          -5.2427    3.3296   -1.9345 H       1  SA1        0.0663
      5 C          -3.2174    1.6492    0.9336 C.ar    1  SA1        0.1658
      6 C          -4.6204    1.6040    0.9279 C.ar    1  SA1        0.2011
      7 O          -5.2617    0.9551    1.9567 O.3     1  SA1       -0.5009
      8 C          -5.3764    2.1974   -0.0910 C.ar    1  SA1        0.1658
      9 C          -4.7023    2.8505   -1.1232 C.ar    1  SA1       -0.0021
     10 C          -3.2988    2.9017   -1.1327 C.ar    1  SA1        0.0660
     11 O          -6.7366    2.0866    0.0156 O.3     1  SA1       -0.4913
     12 H          -7.3966    3.7245   -1.0884 H       1  SA1        0.0660
     13 O          -2.6229    1.0216    1.9997 O.3     1  SA1       -0.4913
     14 H          -4.5512    0.6243    2.5375 H       1  SA1        0.2924
     15 C          -1.2015    1.0681    2.0611 C.3     1  SA1        0.0790
     16 H          -7.3019    2.1604   -1.9884 H       1  SA1        0.0660
     17 C          -7.5252    2.6388   -1.0290 C.3     1  SA1        0.0790
     18 H          -0.8894    0.5393    2.9668 H       1  SA1        0.0660
     19 H          -0.7532    0.5547    1.2042 H       1  SA1        0.0660
     20 H          -0.8436    2.1001    2.1376 H       1  SA1        0.0660
     21 H          -8.5758    2.4408   -0.7956 H       1  SA1        0.0660
     22 O          -3.2078    4.1678   -3.1781 O.2     1  SA1       -0.2451
     23 O          -1.2981    3.5738   -2.1852 O.3     1  SA1       -0.4771
     24 H          -1.0073    4.0658   -2.9824 H       1  SA1        0.2954
@<TRIPOS>BOND
     1     5     6   ar
     2     6     8   ar
     3     1     3    1
     4     2    10    1
     5     4     9    1
     6     6     7    1
     7     8     9   ar
     8     9    10   ar
     9     1    10   ar
    10     1     5   ar
    11     8    11    1
    12    16    17    1
    13     5    13    1
    14     7    14    1
    15    13    15    1
    16    11    17    1
    17    15    18    1
    18    15    19    1
    19    15    20    1
    20    17    21    1
    21    12    17    1
    22     2    22    2
    23     2    23    1
    24    23    24    1
