@<TRIPOS>MOLECULE
SAD
 23 23 0 0 0
SMALL
GASTEIGER

@<TRIPOS>ATOM
      1 C          -2.5345    2.2922   -0.0932 C.ar    1  SAD1       -0.0059
      2 C          -2.5578    3.6078   -2.1952 C.2     1  SAD1        0.1504
      3 H          -1.4515    2.3341   -0.1250 H       1  SAD1        0.0662
      4 H          -5.2055    3.3769   -1.9166 H       1  SAD1        0.0662
      5 C          -3.2057    1.6365    0.9358 C.ar    1  SAD1        0.1656
      6 C          -4.6101    1.6039    0.9249 C.ar    1  SAD1        0.2010
      7 O          -5.2606    0.9485    1.9436 O.3     1  SAD1       -0.5009
      8 C          -5.3586    2.2165   -0.0893 C.ar    1  SAD1        0.1656
      9 C          -4.6766    2.8778   -1.1100 C.ar    1  SAD1       -0.0059
     10 C          -3.2752    2.9102   -1.1080 C.ar    1  SAD1        0.0213
     11 O          -6.7200    2.1168    0.0125 O.3     1  SAD1       -0.4913
     12 H          -7.3800    3.7303   -1.1273 H       1  SAD1        0.0660
     13 O          -2.6214    0.9906    1.9963 O.3     1  SAD1       -0.4913
     14 H          -4.5571    0.6024    2.5237 H       1  SAD1        0.2924
     15 C          -1.2029    1.0575    2.0912 C.3     1  SAD1        0.0790
     16 H          -7.2512    2.1545   -2.0029 H       1  SAD1        0.0660
     17 C          -7.4968    2.6440   -1.0544 C.3     1  SAD1        0.0790
     18 H          -0.9038    0.5298    3.0020 H       1  SAD1        0.0660
     19 H          -0.7280    0.5545    1.2424 H       1  SAD1        0.0660
     20 H          -0.8614    2.0944    2.1790 H       1  SAD1        0.0660
     21 H          -8.5490    2.4365   -0.8363 H       1  SAD1        0.0660
     22 O          -3.1481    4.1803   -3.1022 O.2     1  SAD1       -0.2957
     23 H          -1.4559    3.5893   -2.1519 H       1  SAD1        0.1081
@<TRIPOS>BOND
     1     5     6   ar
     2     8     6   ar
     3     1     3    1
     4    10     2    1
     5     9     4    1
     6     7     6    1
     7     8     9   ar
     8     9    10   ar
     9    10     1   ar
    10     1     5   ar
    11     8    11    1
    12    17    16    1
    13     5    13    1
    14     7    14    1
    15    13    15    1
    16    11    17    1
    17    15    18    1
    18    15    19    1
    19    15    20    1
    20    17    21    1
    21    17    12    1
    22     2    22    2
    23     2    23    1
