@<TRIPOS>MOLECULE
SOL
 3 2 0 0 0
SMALL
GASTEIGER

@<TRIPOS>ATOM
      1 O          -1.3555    2.7125   -0.0307 O.3     1  SOL1       -0.4105
      2 H          -1.6007    1.8712    0.3828 H       1  SOL1        0.2052
      3 H          -0.9737    3.2278    0.6956 H       1  SOL1        0.2052
@<TRIPOS>BOND
     1     1     2    1
     2     1     3    1
