@<TRIPOS>MOLECULE
phnl
 13 13 0 0 0
SMALL
GASTEIGER

@<TRIPOS>ATOM
      1 C          -4.9993    2.0642    0.0000 C.ar    1  UNL1       -0.0202
      2 C          -4.2747    0.8710    0.0000 C.ar    1  UNL1       -0.0583
      3 O          -4.9838    4.4674    0.0000 O.3     1  UNL1       -0.5068
      4 H          -2.4089    4.2688    0.0001 H       1  UNL1        0.0654
      5 C          -2.8790    0.8994    0.0000 C.ar    1  UNL1       -0.0615
      6 H          -4.7968   -0.0823   -0.0000 H       1  UNL1        0.0619
      7 C          -2.2052    2.1213    0.0001 C.ar    1  UNL1       -0.0583
      8 H          -2.3161   -0.0306    0.0000 H       1  UNL1        0.0618
      9 C          -2.9273    3.3145    0.0001 C.ar    1  UNL1       -0.0202
     10 H          -1.1188    2.1451    0.0001 H       1  UNL1        0.0619
     11 C          -4.3173    3.2777    0.0000 C.ar    1  UNL1        0.1169
     12 H          -6.0838    2.0271   -0.0000 H       1  UNL1        0.0654
     13 H          -5.9376    4.2858    0.0001 H       1  UNL1        0.2921
@<TRIPOS>BOND
     1     1     2   ar
     2    11     3    1
     3     1    11   ar
     4     2     5   ar
     5     2     6    1
     6     5     7   ar
     7     5     8    1
     8     7     9   ar
     9     7    10    1
    10     9    11   ar
    11     9     4    1
    12     1    12    1
    13     3    13    1
