@<TRIPOS>MOLECULE
Phnl 
13 13 0 0 0
SMALL
USER_CHARGES
#CGenFF output mol2 file
@<TRIPOS>ATOM
1	C1    -4.9993     2.0642     0.0000	C.ar	1	UNL1    -0.1130
2	C2    -4.2747     0.8710     0.0000	C.ar	1	UNL1    -0.1140
3	O    -4.9838     4.4674     0.0000	O.3	1	UNL1    -0.5330
4	H1    -2.4089     4.2688     0.0001	H	1	UNL1     0.1150
5	C3    -2.8790     0.8994     0.0000	C.ar	1	UNL1    -0.1150
6	H2    -4.7968    -0.0823    -0.0000	H	1	UNL1     0.1150
7	C4    -2.2052     2.1213     0.0001	C.ar	1	UNL1    -0.1140
8	H3    -2.3161    -0.0306     0.0000	H	1	UNL1     0.1150
9	C5    -2.9273     3.3145     0.0001	C.ar	1	UNL1    -0.1130
10	H4    -1.1188     2.1451     0.0001	H	1	UNL1     0.1150
11	C6    -4.3173     3.2777     0.0000	C.ar	1	UNL1     0.1070
12	H5    -6.0838     2.0271    -0.0000	H	1	UNL1     0.1150
13	H6    -5.9376     4.2858     0.0001	H	1	UNL1     0.4200
@<TRIPOS>BOND
1	1	2	2
2	11	3	1
3	1	11	1
4	2	5	1
5	2	6	1
6	5	7	2
7	5	8	1
8	7	9	1
9	7	10	1
10	9	11	2
11	9	4	1
12	1	12	1
13	3	13	1
