@<TRIPOS>MOLECULE
mth
 5 4 0 0 0
SMALL
GASTEIGER

@<TRIPOS>ATOM
      1 C          -4.2083    2.0163    0.0000 C.3     1  mth       -0.0776
      2 H          -3.4278    2.7452    0.0674 H       1  mth        0.0194
      3 H          -4.8883    2.2929   -0.7785 H       1  mth        0.0194
      4 H          -3.7843    1.0590   -0.2202 H       1  mth        0.0194
      5 H          -4.7329    1.9684    0.9314 H       1  mth        0.0194
@<TRIPOS>BOND
     1     1     2    1
     2     1     3    1
     3     1     4    1
     4     1     5    1
