@<TRIPOS>MOLECULE
oct
 26 25 0 0 0
SMALL
GASTEIGER

@<TRIPOS>ATOM
      1 C          -5.3510    1.5639   -0.5840 C.3     1  oct       -0.0653
      2 C          -4.2320    2.5869   -0.4701 C.3     1  oct       -0.0559
      3 H          -6.0454    1.8485   -1.3807 H       1  oct        0.0230
      4 H          -4.9528    0.5717   -0.8187 H       1  oct        0.0230
      5 H          -5.9162    1.4953    0.3509 H       1  oct        0.0230
      6 H          -3.7074    2.6545   -1.4302 H       1  oct        0.0263
      7 H          -4.6655    3.5730   -0.2671 H       1  oct        0.0263
      8 C          -3.2453    2.2152    0.6362 C.3     1  oct       -0.0533
      9 H          -2.8181    1.2263    0.4303 H       1  oct        0.0265
     10 C          -2.1208    3.2457    0.7487 C.3     1  oct       -0.0531
     11 H          -3.7762    2.1447    1.5934 H       1  oct        0.0265
     12 H          -1.5897    3.3160   -0.2082 H       1  oct        0.0265
     13 H          -2.5479    4.2346    0.9550 H       1  oct        0.0265
     14 C          -1.1339    2.8727    1.8562 C.3     1  oct       -0.0531
     15 H          -0.7068    1.8838    1.6500 H       1  oct        0.0265
     16 C          -0.0094    3.9031    1.9688 C.3     1  oct       -0.0533
     17 H          -1.6650    2.8024    2.8132 H       1  oct        0.0265
     18 H           0.5215    3.9736    1.0116 H       1  oct        0.0265
     19 H          -0.4366    4.8921    2.1747 H       1  oct        0.0265
     20 C           0.9773    3.5315    3.0751 C.3     1  oct       -0.0559
     21 H           1.4108    2.5453    2.8720 H       1  oct        0.0263
     22 C           2.0963    4.5544    3.1890 C.3     1  oct       -0.0653
     23 H           0.4527    3.4639    4.0352 H       1  oct        0.0263
     24 H           2.6615    4.6231    2.2541 H       1  oct        0.0230
     25 H           1.6981    5.5467    3.4237 H       1  oct        0.0230
     26 H           2.7907    4.2699    3.9857 H       1  oct        0.0230
@<TRIPOS>BOND
     1     1     2    1
     2     1     3    1
     3     1     4    1
     4     1     5    1
     5     2     6    1
     6     2     7    1
     7     2     8    1
     8     8     9    1
     9     8    10    1
    10     8    11    1
    11    10    12    1
    12    10    13    1
    13    10    14    1
    14    14    15    1
    15    14    16    1
    16    14    17    1
    17    16    18    1
    18    16    19    1
    19    16    20    1
    20    20    21    1
    21    20    22    1
    22    20    23    1
    23    22    24    1
    24    22    25    1
    25    22    26    1
